
     RDKit          3D

216219  0  0  0  0  0  0  0  0999 V2000
    4.3701   -7.9029    0.9149 C   0  0  0  0  0  0  0  0  0  0  0  0
    4.7573   -6.4349    1.0267 C   0  0  0  0  0  0  0  0  0  0  0  0
    4.1684   -5.5665   -0.0868 C   0  0  0  0  0  0  0  0  0  0  0  0
    2.6485   -5.4147    0.0176 C   0  0  0  0  0  0  0  0  0  0  0  0
    2.1121   -4.4811   -1.0679 C   0  0  0  0  0  0  0  0  0  0  0  0
    0.6067   -4.2506   -0.9730 C   0  0  0  0  0  0  0  0  0  0  0  0
    0.0644   -3.6201    0.3146 C   0  0  0  0  0  0  0  0  0  0  0  0
    0.4650   -2.1572    0.5405 C   0  0  0  0  0  0  0  0  0  0  0  0
    1.7806   -1.9797    1.2940 C   0  0  0  0  0  0  0  0  0  0  0  0
    1.7003   -2.4103    2.7478 C   0  0  0  0  0  0  0  0  0  0  0  0
    0.7114   -2.2280    3.4530 O   0  0  0  0  0  0  0  0  0  0  0  0
    2.8749   -2.9375    3.2282 N   0  0  0  0  0  0  0  0  0  0  0  0
    3.1288   -3.2695    4.6351 C   0  0  0  0  0  0  0  0  0  0  0  0
    2.1268   -4.2041    5.3244 C   0  0  0  0  0  0  0  0  0  0  0  0
    2.1643   -5.6070    4.7962 C   0  0  0  0  0  0  0  0  0  0  0  0
    3.1768   -6.5290    4.9868 C   0  0  0  0  0  0  0  0  0  0  0  0
    2.8287   -7.6903    4.3524 N   0  0  0  0  0  0  0  0  0  0  0  0
    1.5970   -7.5560    3.7580 C   0  0  0  0  0  0  0  0  0  0  0  0
    0.8494   -8.4767    3.0149 C   0  0  0  0  0  0  0  0  0  0  0  0
   -0.3923   -8.0597    2.5288 C   0  0  0  0  0  0  0  0  0  0  0  0
   -0.8676   -6.7754    2.7786 C   0  0  0  0  0  0  0  0  0  0  0  0
   -0.1070   -5.8682    3.5239 C   0  0  0  0  0  0  0  0  0  0  0  0
    1.1534   -6.2600    4.0204 C   0  0  0  0  0  0  0  0  0  0  0  0
    3.3237   -1.9746    5.4332 C   0  0  0  0  0  0  0  0  0  0  0  0
    4.4215   -1.6576    5.8949 O   0  0  0  0  0  0  0  0  0  0  0  0
    2.2066   -1.1763    5.5830 N   0  0  0  0  0  0  0  0  0  0  0  0
    2.3640    0.2105    6.0126 C   0  0  0  0  0  0  0  0  0  0  0  0
    2.4885    0.3740    7.5271 C   0  0  0  0  0  0  0  0  0  0  0  0
    1.2008    0.1286    8.2740 C   0  0  0  0  0  0  0  0  0  0  0  0
    0.6550    0.9909    8.9577 O   0  0  0  0  0  0  0  0  0  0  0  0
    0.7033   -1.1380    8.2017 N   0  0  0  0  0  0  0  0  0  0  0  0
    1.2229    1.0725    5.4437 C   0  0  0  0  0  0  0  0  0  0  0  0
    0.0824    0.6433    5.2726 O   0  0  0  0  0  0  0  0  0  0  0  0
    1.5956    2.3731    5.1590 N   0  0  0  0  0  0  0  0  0  0  0  0
    0.7233    3.2337    4.3563 C   0  0  0  0  0  0  0  0  0  0  0  0
    1.0160    4.7047    4.6725 C   0  0  0  0  0  0  0  0  0  0  0  0
    2.0883    5.2882    3.8037 C   0  0  0  0  0  0  0  0  0  0  0  0
    1.9982    6.3398    3.1919 O   0  0  0  0  0  0  0  0  0  0  0  0
    3.1706    4.4952    3.7113 O   0  0  0  0  0  0  0  0  0  0  0  0
    0.9079    2.8460    2.8578 C   0  0  0  0  0  0  0  0  0  0  0  0
    1.4554    1.8048    2.4905 O   0  0  0  0  0  0  0  0  0  0  0  0
    0.4254    3.7577    1.9460 N   0  0  0  0  0  0  0  0  0  0  0  0
    0.6523    3.6035    0.4978 C   0  0  0  0  0  0  0  0  0  0  0  0
   -0.2257    2.5009   -0.1553 C   0  0  0  0  0  0  0  0  0  0  0  0
   -1.1781    1.8026    0.7017 O   0  0  0  0  0  0  0  0  0  0  0  0
   -2.1706    2.4903    1.3320 C   0  0  0  0  0  0  0  0  0  0  0  0
   -2.2133    3.7123    1.4169 O   0  0  0  0  0  0  0  0  0  0  0  0
   -3.2098    1.5453    1.9758 C   0  0  0  0  0  0  0  0  0  0  0  0
   -3.1149    0.1667    1.4674 N   0  0  0  0  0  0  0  0  0  0  0  0
   -3.6709   -0.4805    0.4186 C   0  0  0  0  0  0  0  0  0  0  0  0
   -3.1494   -1.5689    0.1321 O   0  0  0  0  0  0  0  0  0  0  0  0
   -4.8702   -0.0138   -0.4740 C   0  0  0  0  0  0  0  0  0  0  0  0
   -5.8546   -1.1157   -0.5336 N   0  0  0  0  0  0  0  0  0  0  0  0
   -5.8787   -2.2378   -1.3003 C   0  0  0  0  0  0  0  0  0  0  0  0
   -6.7529   -3.0764   -1.0689 O   0  0  0  0  0  0  0  0  0  0  0  0
   -4.8962   -2.4269   -2.4608 C   0  0  0  0  0  0  0  0  0  0  0  0
   -4.8890   -3.8585   -2.8049 N   0  0  0  0  0  0  0  0  0  0  0  0
   -3.8113   -4.6807   -2.9183 C   0  0  0  0  0  0  0  0  0  0  0  0
   -3.9819   -5.9000   -2.9571 O   0  0  0  0  0  0  0  0  0  0  0  0
   -2.4174   -4.0462   -2.9890 C   0  0  0  0  0  0  0  0  0  0  0  0
   -1.4864   -4.9967   -3.5805 N   0  0  0  0  0  0  0  0  0  0  0  0
   -0.7865   -4.9056   -4.7443 C   0  0  0  0  0  0  0  0  0  0  0  0
   -0.2687   -5.9246   -5.2050 O   0  0  0  0  0  0  0  0  0  0  0  0
   -0.6481   -3.5298   -5.4398 C   0  0  0  0  0  0  0  0  0  0  0  0
    0.0741   -2.6029   -4.5552 N   0  0  0  0  0  0  0  0  0  0  0  0
   -0.0005   -1.2494   -4.4227 C   0  0  0  0  0  0  0  0  0  0  0  0
    0.8295   -0.6746   -3.7096 O   0  0  0  0  0  0  0  0  0  0  0  0
   -1.0570   -0.4569   -5.2085 C   0  0  0  0  0  0  0  0  0  0  0  0
   -0.6147   -0.0495   -6.5545 N   0  0  0  0  0  0  0  0  0  0  0  0
    0.2261    1.0264   -6.7383 C   0  0  0  0  0  0  0  0  0  0  0  0
   -0.2802    2.0820   -7.1249 O   0  0  0  0  0  0  0  0  0  0  0  0
    1.7352    0.8855   -6.4106 C   0  0  0  0  0  0  0  0  0  0  0  0
    2.4511    2.0364   -6.9851 N   0  0  0  0  0  0  0  0  0  0  0  0
    2.6265    3.2839   -6.4564 C   0  0  0  0  0  0  0  0  0  0  0  0
    3.0236    4.1869   -7.1945 O   0  0  0  0  0  0  0  0  0  0  0  0
    2.4208    3.4811   -4.9393 C   0  0  0  0  0  0  0  0  0  0  0  0
    3.5336    2.7809   -4.2868 N   0  0  0  0  0  0  0  0  0  0  0  0
    3.6704    2.4802   -2.9638 C   0  0  0  0  0  0  0  0  0  0  0  0
    4.7932    2.2252   -2.5278 O   0  0  0  0  0  0  0  0  0  0  0  0
    2.4439    2.4889   -2.0449 C   0  0  0  0  0  0  0  0  0  0  0  0
    2.8530    3.1224   -0.8006 N   0  0  0  0  0  0  0  0  0  0  0  0
    2.2104    3.5905    0.2882 C   0  0  0  0  0  0  0  0  0  0  0  0
    2.9666    4.1416    1.1106 O   0  0  0  0  0  0  0  0  0  0  0  0
    2.4131    4.9669   -4.5277 C   0  0  0  0  0  0  0  0  0  0  0  0
    1.0447    5.6464   -4.6738 C   0  0  0  0  0  0  0  0  0  0  0  0
    0.5575    5.9015   -6.1012 C   0  0  0  0  0  0  0  0  0  0  0  0
    1.4831    6.7456   -6.8396 N   0  0  0  0  0  0  0  0  0  0  0  0
    2.3383   -0.4192   -6.9336 C   0  0  0  0  0  0  0  0  0  0  0  0
    2.1313   -0.5908   -8.4110 C   0  0  0  0  0  0  0  0  0  0  0  0
    1.8894    0.2995   -9.2111 O   0  0  0  0  0  0  0  0  0  0  0  0
    2.2641   -1.8708   -8.8067 O   0  0  0  0  0  0  0  0  0  0  0  0
   -1.5340    0.7341   -4.3723 C   0  0  0  0  0  0  0  0  0  0  0  0
    0.0062   -3.6809   -6.8159 C   0  0  0  0  0  0  0  0  0  0  0  0
    1.4165   -4.1912   -6.7248 C   0  0  0  0  0  0  0  0  0  0  0  0
    2.2453   -3.8884   -5.8792 O   0  0  0  0  0  0  0  0  0  0  0  0
    1.7367   -5.0085   -7.7474 O   0  0  0  0  0  0  0  0  0  0  0  0
   -5.3305   -1.6104   -3.6801 C   0  0  0  0  0  0  0  0  0  0  0  0
   -4.4507   -1.8545   -4.7849 O   0  0  0  0  0  0  0  0  0  0  0  0
   -5.6037    1.3255   -0.2619 C   0  0  0  0  0  0  0  0  0  0  0  0
   -6.5363    1.3059    0.9613 C   0  0  0  0  0  0  0  0  0  0  0  0
   -6.4177    1.6880   -1.5268 C   0  0  0  0  0  0  0  0  0  0  0  0
   -6.8798    3.1209   -1.5386 C   0  0  0  0  0  0  0  0  0  0  0  0
   -6.3834    4.0565   -0.9367 O   0  0  0  0  0  0  0  0  0  0  0  0
   -7.9220    3.3089   -2.3741 O   0  0  0  0  0  0  0  0  0  0  0  0
   -3.0018    1.5569    3.4971 C   0  0  0  0  0  0  0  0  0  0  0  0
   -3.6958    2.7525    4.1286 C   0  0  0  0  0  0  0  0  0  0  0  0
   -4.5971    3.3467    3.5359 O   0  0  0  0  0  0  0  0  0  0  0  0
   -3.2545    3.2183    5.4828 C   0  0  0  0  0  0  0  0  0  0  0  0
   -2.5893    2.3309    6.3440 C   0  0  0  0  0  0  0  0  0  0  0  0
   -2.1249    2.7666    7.5852 C   0  0  0  0  0  0  0  0  0  0  0  0
   -2.3252    4.0812    7.9845 C   0  0  0  0  0  0  0  0  0  0  0  0
   -3.0025    4.9655    7.1451 C   0  0  0  0  0  0  0  0  0  0  0  0
   -3.4521    4.5626    5.8759 C   0  0  0  0  0  0  0  0  0  0  0  0
   -4.2343    5.4645    5.1436 N   0  0  0  0  0  0  0  0  0  0  0  0
   -1.0183    3.0440   -1.3551 C   0  0  0  0  0  0  0  0  0  0  0  0
    4.8626   -8.4796    1.7034 H   0  0  0  0  0  0  0  0  0  0  0  0
    4.6800   -8.3119   -0.0515 H   0  0  0  0  0  0  0  0  0  0  0  0
    3.2930   -8.0443    1.0209 H   0  0  0  0  0  0  0  0  0  0  0  0
    5.8505   -6.3577    0.9865 H   0  0  0  0  0  0  0  0  0  0  0  0
    4.4483   -6.0429    2.0065 H   0  0  0  0  0  0  0  0  0  0  0  0
    4.6270   -4.5732   -0.0255 H   0  0  0  0  0  0  0  0  0  0  0  0
    4.4378   -5.9839   -1.0629 H   0  0  0  0  0  0  0  0  0  0  0  0
    2.1588   -6.3926   -0.0804 H   0  0  0  0  0  0  0  0  0  0  0  0
    2.4010   -5.0273    1.0123 H   0  0  0  0  0  0  0  0  0  0  0  0
    2.6402   -3.5234   -1.0564 H   0  0  0  0  0  0  0  0  0  0  0  0
    2.3260   -4.9241   -2.0503 H   0  0  0  0  0  0  0  0  0  0  0  0
    0.1040   -5.2195   -1.1077 H   0  0  0  0  0  0  0  0  0  0  0  0
    0.3068   -3.6245   -1.8209 H   0  0  0  0  0  0  0  0  0  0  0  0
    0.3166   -4.2327    1.1823 H   0  0  0  0  0  0  0  0  0  0  0  0
   -1.0312   -3.6470    0.2412 H   0  0  0  0  0  0  0  0  0  0  0  0
    0.5232   -1.6360   -0.4230 H   0  0  0  0  0  0  0  0  0  0  0  0
   -0.3363   -1.6641    1.1074 H   0  0  0  0  0  0  0  0  0  0  0  0
    2.6020   -2.4944    0.7913 H   0  0  0  0  0  0  0  0  0  0  0  0
    2.0406   -0.9143    1.3062 H   0  0  0  0  0  0  0  0  0  0  0  0
    3.6805   -2.9490    2.6152 H   0  0  0  0  0  0  0  0  0  0  0  0
    4.1114   -3.7607    4.6248 H   0  0  0  0  0  0  0  0  0  0  0  0
    2.3627   -4.2443    6.4000 H   0  0  0  0  0  0  0  0  0  0  0  0
    1.1061   -3.8126    5.2751 H   0  0  0  0  0  0  0  0  0  0  0  0
    4.1171   -6.4572    5.5201 H   0  0  0  0  0  0  0  0  0  0  0  0
    3.3879   -8.5315    4.3296 H   0  0  0  0  0  0  0  0  0  0  0  0
    1.2151   -9.4783    2.8189 H   0  0  0  0  0  0  0  0  0  0  0  0
   -0.9972   -8.7518    1.9479 H   0  0  0  0  0  0  0  0  0  0  0  0
   -1.8388   -6.4714    2.3936 H   0  0  0  0  0  0  0  0  0  0  0  0
   -0.4872   -4.8650    3.7099 H   0  0  0  0  0  0  0  0  0  0  0  0
    1.4045   -1.3751    4.9702 H   0  0  0  0  0  0  0  0  0  0  0  0
    3.2972    0.5678    5.5591 H   0  0  0  0  0  0  0  0  0  0  0  0
    3.2535   -0.2983    7.9380 H   0  0  0  0  0  0  0  0  0  0  0  0
    2.8036    1.3991    7.7552 H   0  0  0  0  0  0  0  0  0  0  0  0
   -0.1936   -1.3085    8.6361 H   0  0  0  0  0  0  0  0  0  0  0  0
    1.0057   -1.7661    7.4673 H   0  0  0  0  0  0  0  0  0  0  0  0
    2.5872    2.5300    4.9950 H   0  0  0  0  0  0  0  0  0  0  0  0
   -0.3115    3.0117    4.6264 H   0  0  0  0  0  0  0  0  0  0  0  0
    0.1057    5.2887    4.4784 H   0  0  0  0  0  0  0  0  0  0  0  0
    1.2785    4.8571    5.7253 H   0  0  0  0  0  0  0  0  0  0  0  0
    3.5525    4.7211    2.8216 H   0  0  0  0  0  0  0  0  0  0  0  0
   -0.3030    4.4124    2.2209 H   0  0  0  0  0  0  0  0  0  0  0  0
    0.3490    4.5738    0.0827 H   0  0  0  0  0  0  0  0  0  0  0  0
    0.4189    1.6988   -0.5174 H   0  0  0  0  0  0  0  0  0  0  0  0
   -4.1822    1.9320    1.7203 H   0  0  0  0  0  0  0  0  0  0  0  0
   -2.2954   -0.3413    1.7888 H   0  0  0  0  0  0  0  0  0  0  0  0
   -4.3958    0.0511   -1.4610 H   0  0  0  0  0  0  0  0  0  0  0  0
   -6.4773   -1.2192    0.2611 H   0  0  0  0  0  0  0  0  0  0  0  0
   -3.8924   -2.1425   -2.1517 H   0  0  0  0  0  0  0  0  0  0  0  0
   -5.7557   -4.3627   -2.6093 H   0  0  0  0  0  0  0  0  0  0  0  0
   -2.0889   -3.8497   -1.9647 H   0  0  0  0  0  0  0  0  0  0  0  0
   -2.4430   -3.1234   -3.5629 H   0  0  0  0  0  0  0  0  0  0  0  0
   -1.5505   -5.9515   -3.2238 H   0  0  0  0  0  0  0  0  0  0  0  0
   -1.6600   -3.1504   -5.6049 H   0  0  0  0  0  0  0  0  0  0  0  0
    0.8951   -3.0000   -4.0963 H   0  0  0  0  0  0  0  0  0  0  0  0
   -1.9254   -1.0992   -5.3671 H   0  0  0  0  0  0  0  0  0  0  0  0
   -1.4494    0.1823   -7.0835 H   0  0  0  0  0  0  0  0  0  0  0  0
    1.8451    0.9229   -5.3264 H   0  0  0  0  0  0  0  0  0  0  0  0
    2.4898    2.0673   -8.0036 H   0  0  0  0  0  0  0  0  0  0  0  0
    1.4811    3.0089   -4.6365 H   0  0  0  0  0  0  0  0  0  0  0  0
    4.4305    2.8228   -4.7617 H   0  0  0  0  0  0  0  0  0  0  0  0
    1.6129    3.0485   -2.4596 H   0  0  0  0  0  0  0  0  0  0  0  0
    2.1505    1.4551   -1.8428 H   0  0  0  0  0  0  0  0  0  0  0  0
    3.8667    3.1802   -0.6826 H   0  0  0  0  0  0  0  0  0  0  0  0
    2.6854    5.0479   -3.4662 H   0  0  0  0  0  0  0  0  0  0  0  0
    3.1876    5.5292   -5.0637 H   0  0  0  0  0  0  0  0  0  0  0  0
    1.0924    6.6088   -4.1464 H   0  0  0  0  0  0  0  0  0  0  0  0
    0.2858    5.0523   -4.1464 H   0  0  0  0  0  0  0  0  0  0  0  0
   -0.4125    6.4062   -6.0488 H   0  0  0  0  0  0  0  0  0  0  0  0
    0.3980    4.9605   -6.6357 H   0  0  0  0  0  0  0  0  0  0  0  0
    1.0530    7.0170   -7.7226 H   0  0  0  0  0  0  0  0  0  0  0  0
    2.2899    6.1759   -7.1186 H   0  0  0  0  0  0  0  0  0  0  0  0
    3.4172   -0.4490   -6.7386 H   0  0  0  0  0  0  0  0  0  0  0  0
    1.8789   -1.2655   -6.4203 H   0  0  0  0  0  0  0  0  0  0  0  0
    2.1836   -1.8541   -9.7831 H   0  0  0  0  0  0  0  0  0  0  0  0
   -0.7174    1.4322   -4.1512 H   0  0  0  0  0  0  0  0  0  0  0  0
   -1.9424    0.3916   -3.4127 H   0  0  0  0  0  0  0  0  0  0  0  0
   -2.3178    1.2949   -4.8953 H   0  0  0  0  0  0  0  0  0  0  0  0
   -0.5844   -4.3873   -7.4149 H   0  0  0  0  0  0  0  0  0  0  0  0
    0.0238   -2.7287   -7.3545 H   0  0  0  0  0  0  0  0  0  0  0  0
    2.6607   -5.2753   -7.5574 H   0  0  0  0  0  0  0  0  0  0  0  0
   -5.2946   -0.5394   -3.4701 H   0  0  0  0  0  0  0  0  0  0  0  0
   -6.3516   -1.8531   -3.9928 H   0  0  0  0  0  0  0  0  0  0  0  0
   -4.7157   -2.7313   -5.1311 H   0  0  0  0  0  0  0  0  0  0  0  0
   -4.8525    2.1086   -0.1373 H   0  0  0  0  0  0  0  0  0  0  0  0
   -7.4733    0.7729    0.7517 H   0  0  0  0  0  0  0  0  0  0  0  0
   -6.8037    2.3247    1.2593 H   0  0  0  0  0  0  0  0  0  0  0  0
   -6.0730    0.8195    1.8239 H   0  0  0  0  0  0  0  0  0  0  0  0
   -7.2936    1.0308   -1.6149 H   0  0  0  0  0  0  0  0  0  0  0  0
   -5.8034    1.5623   -2.4251 H   0  0  0  0  0  0  0  0  0  0  0  0
   -8.1235    4.2662   -2.3080 H   0  0  0  0  0  0  0  0  0  0  0  0
   -3.4333    0.6580    3.9493 H   0  0  0  0  0  0  0  0  0  0  0  0
   -1.9318    1.5808    3.7220 H   0  0  0  0  0  0  0  0  0  0  0  0
   -2.4173    1.2910    6.0737 H   0  0  0  0  0  0  0  0  0  0  0  0
   -1.6008    2.0740    8.2453 H   0  0  0  0  0  0  0  0  0  0  0  0
   -1.9774    4.4110    8.9580 H   0  0  0  0  0  0  0  0  0  0  0  0
   -3.1888    5.9781    7.4901 H   0  0  0  0  0  0  0  0  0  0  0  0
   -3.9803    6.4422    5.2180 H   0  0  0  0  0  0  0  0  0  0  0  0
   -4.4518    5.1543    4.1927 H   0  0  0  0  0  0  0  0  0  0  0  0
   -1.7049    3.8459   -1.0578 H   0  0  0  0  0  0  0  0  0  0  0  0
   -0.3754    3.4499   -2.1367 H   0  0  0  0  0  0  0  0  0  0  0  0
   -1.6383    2.2528   -1.7862 H   0  0  0  0  0  0  0  0  0  0  0  0
  1  2  1  0
  2  3  1  0
  3  4  1  0
  4  5  1  0
  5  6  1  0
  6  7  1  0
  7  8  1  0
  8  9  1  0
  9 10  1  0
 10 11  2  0
 10 12  1  0
 12 13  1  0
 13 14  1  0
 14 15  1  0
 15 16  2  0
 16 17  1  0
 17 18  1  0
 18 19  2  0
 19 20  1  0
 20 21  2  0
 21 22  1  0
 22 23  2  0
 13 24  1  0
 24 25  2  0
 24 26  1  0
 26 27  1  0
 27 28  1  0
 28 29  1  0
 29 30  2  0
 29 31  1  0
 27 32  1  0
 32 33  2  0
 32 34  1  0
 34 35  1  0
 35 36  1  0
 36 37  1  0
 37 38  2  0
 37 39  1  0
 35 40  1  0
 40 41  2  0
 40 42  1  0
 42 43  1  0
 43 44  1  0
 44 45  1  0
 45 46  1  0
 46 47  2  0
 46 48  1  0
 48 49  1  0
 49 50  1  0
 50 51  2  0
 50 52  1  0
 52 53  1  0
 53 54  1  0
 54 55  2  0
 54 56  1  0
 56 57  1  0
 57 58  1  0
 58 59  2  0
 58 60  1  0
 60 61  1  0
 61 62  1  0
 62 63  2  0
 62 64  1  0
 64 65  1  0
 65 66  1  0
 66 67  2  0
 66 68  1  0
 68 69  1  0
 69 70  1  0
 70 71  2  0
 70 72  1  0
 72 73  1  0
 73 74  1  0
 74 75  2  0
 74 76  1  0
 76 77  1  0
 77 78  1  0
 78 79  2  0
 78 80  1  0
 80 81  1  0
 81 82  1  0
 82 83  2  0
 76 84  1  0
 84 85  1  0
 85 86  1  0
 86 87  1  0
 72 88  1  0
 88 89  1  0
 89 90  2  0
 89 91  1  0
 68 92  1  0
 64 93  1  0
 93 94  1  0
 94 95  2  0
 94 96  1  0
 56 97  1  0
 97 98  1  0
 52 99  1  0
 99100  1  0
 99101  1  0
101102  1  0
102103  2  0
102104  1  0
 48105  1  0
105106  1  0
106107  2  0
106108  1  0
108109  2  0
109110  1  0
110111  2  0
111112  1  0
112113  2  0
113114  1  0
 44115  1  0
 23 15  1  0
 23 18  1  0
 82 43  1  0
113108  1  0
  1116  1  0
  1117  1  0
  1118  1  0
  2119  1  0
  2120  1  0
  3121  1  0
  3122  1  0
  4123  1  0
  4124  1  0
  5125  1  0
  5126  1  0
  6127  1  0
  6128  1  0
  7129  1  0
  7130  1  0
  8131  1  0
  8132  1  0
  9133  1  0
  9134  1  0
 12135  1  0
 13136  1  0
 14137  1  0
 14138  1  0
 16139  1  0
 17140  1  0
 19141  1  0
 20142  1  0
 21143  1  0
 22144  1  0
 26145  1  0
 27146  1  0
 28147  1  0
 28148  1  0
 31149  1  0
 31150  1  0
 34151  1  0
 35152  1  0
 36153  1  0
 36154  1  0
 39155  1  0
 42156  1  0
 43157  1  0
 44158  1  0
 48159  1  0
 49160  1  0
 52161  1  0
 53162  1  0
 56163  1  0
 57164  1  0
 60165  1  0
 60166  1  0
 61167  1  0
 64168  1  0
 65169  1  0
 68170  1  0
 69171  1  0
 72172  1  0
 73173  1  0
 76174  1  0
 77175  1  0
 80176  1  0
 80177  1  0
 81178  1  0
 84179  1  0
 84180  1  0
 85181  1  0
 85182  1  0
 86183  1  0
 86184  1  0
 87185  1  0
 87186  1  0
 88187  1  0
 88188  1  0
 91189  1  0
 92190  1  0
 92191  1  0
 92192  1  0
 93193  1  0
 93194  1  0
 96195  1  0
 97196  1  0
 97197  1  0
 98198  1  0
 99199  1  0
100200  1  0
100201  1  0
100202  1  0
101203  1  0
101204  1  0
104205  1  0
105206  1  0
105207  1  0
109208  1  0
110209  1  0
111210  1  0
112211  1  0
114212  1  0
114213  1  0
115214  1  0
115215  1  0
115216  1  0
M  END
